Version 4
SHEET 1 880 680
WIRE 368 64 304 64
WIRE 368 96 304 96
WIRE 368 160 304 160
WIRE 368 192 304 192
WIRE 608 192 544 192
WIRE 368 224 304 224
WIRE 608 224 544 224
WIRE 368 256 304 256
WIRE 608 256 544 256
FLAG 304 160 PA0
IOPIN 304 160 In
FLAG 304 64 PA1
IOPIN 304 64 In
FLAG 304 96 PA4
IOPIN 304 96 Out
FLAG 304 192 PB3
IOPIN 304 192 Out
FLAG 304 224 PB4
IOPIN 304 224 Out
FLAG 304 256 PB5
IOPIN 304 256 Out
FLAG 368 64 555_Out
IOPIN 368 64 Out
FLAG 368 160 Pot
IOPIN 368 160 Out
FLAG 368 96 4N25_Pin1
IOPIN 368 96 In
FLAG 368 192 M21
IOPIN 368 192 In
FLAG 368 224 M25
IOPIN 368 224 In
FLAG 368 256 M17
IOPIN 368 256 In
FLAG 544 192 M21
IOPIN 544 192 Out
FLAG 544 224 M25
IOPIN 544 224 Out
FLAG 544 256 M17
IOPIN 544 256 Out
FLAG 608 192 SPI_SCK
IOPIN 608 192 In
FLAG 608 224 SPI_LCK
IOPIN 608 224 In
FLAG 608 256 SPI_MOSI
IOPIN 608 256 In
TEXT 224 24 Left 2 ;STM32F0
TEXT 552 120 Left 2 ;PBMCUSLK
TEXT 376 24 Left 2 ;Breadboard
RECTANGLE Normal 360 40 512 120 2
RECTANGLE Normal 232 40 312 280 2
RECTANGLE Normal 360 136 732 280 1
